
*****
***** Welcome to the Xyce(TM) Parallel Electronic Simulator
*****
***** This is version Xyce DEVELOPMENT-202409220015-(Public_Release-7.8.0-128-g5b74b0d5)-opensource
***** Date: Fri Dec 13 17:12:47 CET 2024


***** Executing netlist /ALL/Xschem/TO_Nov2024-main/BG/design_data/xschem/simulations/simulation/BG16_rppd_raw_dc_mostt.spice

***** Reading and parsing netlist...
Netlist warning in file
 /home/ich/share/pdk/ihp-sg13g2/libs.tech/xyce/models/sg13g2_moshv_parm.lib at
 or near line 212
 No model parameter MUNQSO found for model SG13G2_HV_PMOS_PSP of type
 PSP103_VA, parameter ignored.
Netlist warning in file
 /home/ich/share/pdk/ihp-sg13g2/libs.tech/xyce/models/sg13g2_moshv_parm.lib at
 or near line 212
 No model parameter SWNQS found for model SG13G2_HV_PMOS_PSP of type
 PSP103_VA, parameter ignored.
Netlist warning in file
 /home/ich/share/pdk/ihp-sg13g2/libs.tech/xyce/models/sg13g2_moshv_parm.lib at
 or near line 62
 No model parameter MUNQSO found for model SG13G2_HV_NMOS_PSP of type
 PSP103_VA, parameter ignored.
Netlist warning in file
 /home/ich/share/pdk/ihp-sg13g2/libs.tech/xyce/models/sg13g2_moshv_parm.lib at
 or near line 62
 No model parameter SWNQS found for model SG13G2_HV_NMOS_PSP of type
 PSP103_VA, parameter ignored.
Netlist warning in file
 /home/ich/share/pdk/ihp-sg13g2/libs.tech/xyce/models/sg13g2_hbt_mod.lib at or
 near line 425
 No model parameter TRM1 found for model PNPMPA_MOD of type PNP, parameter
 ignored.
Netlist warning in file
 /home/ich/share/pdk/ihp-sg13g2/libs.tech/xyce/models/sg13g2_hbt_mod.lib at or
 near line 425
 No model parameter TRM2 found for model PNPMPA_MOD of type PNP, parameter
 ignored.
Netlist warning in file
 /home/ich/share/pdk/ihp-sg13g2/libs.tech/xyce/models/sg13g2_hbt_mod.lib at or
 near line 425
 No model parameter TRC1 found for model PNPMPA_MOD of type PNP, parameter
 ignored.
Netlist warning in file
 /home/ich/share/pdk/ihp-sg13g2/libs.tech/xyce/models/sg13g2_hbt_mod.lib at or
 near line 425
 No model parameter TRC2 found for model PNPMPA_MOD of type PNP, parameter
 ignored.
Netlist warning in file
 /home/ich/share/pdk/ihp-sg13g2/libs.tech/xyce/models/sg13g2_hbt_mod.lib at or
 near line 425
 No model parameter TRE1 found for model PNPMPA_MOD of type PNP, parameter
 ignored.
Netlist warning in file
 /home/ich/share/pdk/ihp-sg13g2/libs.tech/xyce/models/sg13g2_hbt_mod.lib at or
 near line 425
 No model parameter TRE2 found for model PNPMPA_MOD of type PNP, parameter
 ignored.
***** Setting up topology...

Netlist warning: Voltage Node (NET21) connected to only 1 device Terminal
Netlist warning: Voltage Node (NET18) connected to only 1 device Terminal
Netlist warning: Voltage Node (NET20) connected to only 1 device Terminal
Netlist warning: Voltage Node (NET24) connected to only 1 device Terminal
Netlist warning: Voltage Node (NET26) connected to only 1 device Terminal
Netlist warning: Voltage Node (VSS) does not have a DC path to ground
***** Device Count Summary ...
       C level 1 (Capacitor)                     3
       D level 1,2 (Diode)                      48
       I level 1 (Independent Current Source)    1
       PSP103_VA level 1 (ADMS PSP103_VA)      589
       Q level 1 (Bipolar Junction Transistor)  10
       R level 1 (Resistor)                    129
       V level 1 (Independent Voltage Source)   37
       -------------------------------------------
       Total Devices                           817
***** Setting up matrix structure...
***** Number of Unknowns = 1912
***** Initializing...


***** Solution Summary *****
	Number Successful Steps Taken:		443
	Number Failed Steps Attempted:		1
	Number Jacobians Evaluated:		220984
	Number Linear Solves:			220984
	Number Failed Linear Solves:		0
	Number Residual Evaluations:		226682
	Number Nonlinear Convergence Failures:	1
	Total Residual Load Time:		1377.7 seconds
	Total Jacobian Load Time:		133.006 seconds
	Total Linear Solution Time:		84.6444 seconds

	Failed DC sweep steps:		
		DC Step # 13

***** Total Simulation Solvers Run Time: 1682.59 seconds
***** Total Elapsed Run Time:            1684.12 seconds
*****
***** End of Xyce(TM) Simulation
*****

Timing summary of 1 processor
                 Stats                   Count        CPU Time              Wall Time
---------------------------------------- ------ --------------------- ---------------------
Xyce                                          1    27:54.749 (100.0%)    28:04.124 (100.0%)
  Analysis                                    1    27:53.289 (99.91%)    28:02.587 (99.91%)
    Step                                      1    27:53.289 (99.91%)    28:02.587 (99.91%)
      DC Sweep                               12    27:53.273 (99.91%)    28:02.571 (99.91%)
        Solve                               444    27:52.941 (99.89%)    28:02.229 (99.89%)
          Residual                       226682    22:51.682 (81.90%)    22:58.904 (81.88%)
          Jacobian                       220984     2:12.698 ( 7.92%)     2:13.832 ( 7.95%)
          Linear Solve                   220984     1:24.491 ( 5.05%)     1:25.211 ( 5.06%)
        Successful Step                     443        0.173 ( 0.01%)        0.179 ( 0.01%)
        Failed Steps                          1        0.000 (<0.01%)        0.000 (<0.01%)
  Netlist Import                              1        1.336 ( 0.08%)        1.389 ( 0.08%)
    Parse Context                             1        0.021 (<0.01%)        0.022 (<0.01%)
    Distribute Devices                        1        1.290 ( 0.08%)        1.327 ( 0.08%)
    Verify Devices                            1        0.000 (<0.01%)        0.000 (<0.01%)
    Instantiate                               1        0.024 (<0.01%)        0.031 (<0.01%)
  Late Initialization                         1        0.120 (<0.01%)        0.132 (<0.01%)
    Global Indices                            1        0.005 (<0.01%)        0.006 (<0.01%)
  Setup Matrix Structure                      1        0.008 (<0.01%)        0.009 (<0.01%)

