
*****
***** Welcome to the Xyce(TM) Parallel Electronic Simulator
*****
***** This is version Xyce DEVELOPMENT-202409220015-(Public_Release-7.8.0-128-g5b74b0d5)-opensource
***** Date: Fri Dec 13 17:12:47 CET 2024


***** Executing netlist /ALL/Xschem/TO_Nov2024-main/BG/design_data/xschem/simulations/simulation/BG16_rppd_raw_ac_mostt.spice

***** Reading and parsing netlist...
Netlist warning in file
 /home/ich/share/pdk/ihp-sg13g2/libs.tech/xyce/models/sg13g2_moshv_parm.lib at
 or near line 212
 No model parameter MUNQSO found for model SG13G2_HV_PMOS_PSP of type
 PSP103_VA, parameter ignored.
Netlist warning in file
 /home/ich/share/pdk/ihp-sg13g2/libs.tech/xyce/models/sg13g2_moshv_parm.lib at
 or near line 212
 No model parameter SWNQS found for model SG13G2_HV_PMOS_PSP of type
 PSP103_VA, parameter ignored.
Netlist warning in file
 /home/ich/share/pdk/ihp-sg13g2/libs.tech/xyce/models/sg13g2_moshv_parm.lib at
 or near line 62
 No model parameter MUNQSO found for model SG13G2_HV_NMOS_PSP of type
 PSP103_VA, parameter ignored.
Netlist warning in file
 /home/ich/share/pdk/ihp-sg13g2/libs.tech/xyce/models/sg13g2_moshv_parm.lib at
 or near line 62
 No model parameter SWNQS found for model SG13G2_HV_NMOS_PSP of type
 PSP103_VA, parameter ignored.
Netlist warning in file
 /home/ich/share/pdk/ihp-sg13g2/libs.tech/xyce/models/sg13g2_hbt_mod.lib at or
 near line 425
 No model parameter TRM1 found for model PNPMPA_MOD of type PNP, parameter
 ignored.
Netlist warning in file
 /home/ich/share/pdk/ihp-sg13g2/libs.tech/xyce/models/sg13g2_hbt_mod.lib at or
 near line 425
 No model parameter TRM2 found for model PNPMPA_MOD of type PNP, parameter
 ignored.
Netlist warning in file
 /home/ich/share/pdk/ihp-sg13g2/libs.tech/xyce/models/sg13g2_hbt_mod.lib at or
 near line 425
 No model parameter TRC1 found for model PNPMPA_MOD of type PNP, parameter
 ignored.
Netlist warning in file
 /home/ich/share/pdk/ihp-sg13g2/libs.tech/xyce/models/sg13g2_hbt_mod.lib at or
 near line 425
 No model parameter TRC2 found for model PNPMPA_MOD of type PNP, parameter
 ignored.
Netlist warning in file
 /home/ich/share/pdk/ihp-sg13g2/libs.tech/xyce/models/sg13g2_hbt_mod.lib at or
 near line 425
 No model parameter TRE1 found for model PNPMPA_MOD of type PNP, parameter
 ignored.
Netlist warning in file
 /home/ich/share/pdk/ihp-sg13g2/libs.tech/xyce/models/sg13g2_hbt_mod.lib at or
 near line 425
 No model parameter TRE2 found for model PNPMPA_MOD of type PNP, parameter
 ignored.
***** Setting up topology...

Netlist warning: Voltage Node (NET21) connected to only 1 device Terminal
Netlist warning: Voltage Node (NET18) connected to only 1 device Terminal
Netlist warning: Voltage Node (NET20) connected to only 1 device Terminal
Netlist warning: Voltage Node (NET24) connected to only 1 device Terminal
Netlist warning: Voltage Node (NET26) connected to only 1 device Terminal
Netlist warning: Voltage Node (VSS) does not have a DC path to ground
***** Device Count Summary ...
       C level 1 (Capacitor)                     3
       D level 1,2 (Diode)                      48
       I level 1 (Independent Current Source)    1
       PSP103_VA level 1 (ADMS PSP103_VA)      589
       Q level 1 (Bipolar Junction Transistor)  10
       R level 1 (Resistor)                    129
       V level 1 (Independent Voltage Source)   37
       -------------------------------------------
       Total Devices                           817
***** Setting up matrix structure...
***** Number of Unknowns = 1912
***** Initializing...


***** Solution Summary *****
	Number Successful Steps Taken:		732
	Number Failed Steps Attempted:		0
	Number Jacobians Evaluated:		48319
	Number Linear Solves:			48319
	Number Failed Linear Solves:		0
	Number Residual Evaluations:		49447
	Number Nonlinear Convergence Failures:	0
	Total Residual Load Time:		235.109 seconds
	Total Jacobian Load Time:		23.5108 seconds
	Total Linear Solution Time:		15.0075 seconds


***** Total Simulation Solvers Run Time: 291.028 seconds
***** Total Elapsed Run Time:            292.005 seconds
*****
***** End of Xyce(TM) Simulation
*****

Timing summary of 1 processor
                 Stats                   Count       CPU Time              Wall Time
---------------------------------------- ----- --------------------- ---------------------
Xyce                                         1     4:49.779 (100.0%)     4:52.012 (100.0%)
  Analysis                                   1     4:48.887 (99.69%)     4:51.028 (99.66%)
    Step                                     1     4:48.887 (99.69%)     4:51.028 (99.66%)
      AC                                    12     4:48.874 (99.69%)     4:51.015 (99.66%)
        DC Nonlinear Solve                  12     4:43.740 (97.92%)     4:45.832 (97.88%)
          Residual                       49447     3:53.632 (80.62%)     3:55.323 (80.59%)
          Jacobian                       48319       23.432 ( 8.09%)       23.648 ( 8.10%)
          Linear Solve                   48319       14.936 ( 5.15%)       15.091 ( 5.17%)
        AC Linear Solve                    732        0.943 ( 0.33%)        0.946 ( 0.32%)
          Linear Solve                     732        0.939 ( 0.32%)        0.944 ( 0.32%)
  Netlist Import                             1        0.795 ( 0.27%)        0.842 ( 0.29%)
    Parse Context                            1        0.016 (<0.01%)        0.019 (<0.01%)
    Distribute Devices                       1        0.753 ( 0.26%)        0.782 ( 0.27%)
    Verify Devices                           1        0.000 (<0.01%)        0.000 (<0.01%)
    Instantiate                              1        0.024 (<0.01%)        0.029 (<0.01%)
  Late Initialization                        1        0.095 ( 0.03%)        0.127 ( 0.04%)
    Global Indices                           1        0.005 (<0.01%)        0.005 (<0.01%)
  Setup Matrix Structure                     1        0.006 (<0.01%)        0.011 (<0.01%)

