
*****
***** Welcome to the Xyce(TM) Parallel Electronic Simulator
*****
***** This is version Xyce DEVELOPMENT-202409220015-(Public_Release-7.8.0-128-g5b74b0d5)-opensource
***** Date: Fri Dec 13 17:41:48 CET 2024


***** Executing netlist /ALL/Xschem/TO_Nov2024-main/BG/design_data/xschem/simulations/simulation/BG18_rppd_io_ac_mostt.spice

***** Reading and parsing netlist...
Netlist warning in file
 /home/ich/share/pdk/ihp-sg13g2/libs.tech/xyce/models/sg13g2_moshv_parm.lib at
 or near line 212
 No model parameter MUNQSO found for model SG13G2_HV_PMOS_PSP of type
 PSP103_VA, parameter ignored.
Netlist warning in file
 /home/ich/share/pdk/ihp-sg13g2/libs.tech/xyce/models/sg13g2_moshv_parm.lib at
 or near line 212
 No model parameter SWNQS found for model SG13G2_HV_PMOS_PSP of type
 PSP103_VA, parameter ignored.
Netlist warning in file
 /home/ich/share/pdk/ihp-sg13g2/libs.tech/xyce/models/sg13g2_moshv_parm.lib at
 or near line 62
 No model parameter MUNQSO found for model SG13G2_HV_NMOS_PSP of type
 PSP103_VA, parameter ignored.
Netlist warning in file
 /home/ich/share/pdk/ihp-sg13g2/libs.tech/xyce/models/sg13g2_moshv_parm.lib at
 or near line 62
 No model parameter SWNQS found for model SG13G2_HV_NMOS_PSP of type
 PSP103_VA, parameter ignored.
Netlist warning in file
 /home/ich/share/pdk/ihp-sg13g2/libs.tech/xyce/models/sg13g2_hbt_mod.lib at or
 near line 425
 No model parameter TRM1 found for model PNPMPA_MOD of type PNP, parameter
 ignored.
Netlist warning in file
 /home/ich/share/pdk/ihp-sg13g2/libs.tech/xyce/models/sg13g2_hbt_mod.lib at or
 near line 425
 No model parameter TRM2 found for model PNPMPA_MOD of type PNP, parameter
 ignored.
Netlist warning in file
 /home/ich/share/pdk/ihp-sg13g2/libs.tech/xyce/models/sg13g2_hbt_mod.lib at or
 near line 425
 No model parameter TRC1 found for model PNPMPA_MOD of type PNP, parameter
 ignored.
Netlist warning in file
 /home/ich/share/pdk/ihp-sg13g2/libs.tech/xyce/models/sg13g2_hbt_mod.lib at or
 near line 425
 No model parameter TRC2 found for model PNPMPA_MOD of type PNP, parameter
 ignored.
Netlist warning in file
 /home/ich/share/pdk/ihp-sg13g2/libs.tech/xyce/models/sg13g2_hbt_mod.lib at or
 near line 425
 No model parameter TRE1 found for model PNPMPA_MOD of type PNP, parameter
 ignored.
Netlist warning in file
 /home/ich/share/pdk/ihp-sg13g2/libs.tech/xyce/models/sg13g2_hbt_mod.lib at or
 near line 425
 No model parameter TRE2 found for model PNPMPA_MOD of type PNP, parameter
 ignored.
***** Setting up topology...

Netlist warning: Voltage Node (VSS) does not have a DC path to ground
***** Device Count Summary ...
       C level 1 (Capacitor)                      3
       D level 1,2 (Diode)                      102
       I level 1 (Independent Current Source)     1
       PSP103_VA level 1 (ADMS PSP103_VA)       769
       Q level 1 (Bipolar Junction Transistor)   10
       R level 1 (Resistor)                     147
       V level 1 (Independent Voltage Source)    21
       --------------------------------------------
       Total Devices                           1053
***** Setting up matrix structure...
***** Number of Unknowns = 2373
***** Initializing...


***** Solution Summary *****
	Number Successful Steps Taken:		732
	Number Failed Steps Attempted:		0
	Number Jacobians Evaluated:		38971
	Number Linear Solves:			38971
	Number Failed Linear Solves:		0
	Number Residual Evaluations:		39879
	Number Nonlinear Convergence Failures:	0
	Total Residual Load Time:		517.612 seconds
	Total Jacobian Load Time:		36.0827 seconds
	Total Linear Solution Time:		22.1303 seconds


***** Total Simulation Solvers Run Time: 615.598 seconds
***** Total Elapsed Run Time:            617.202 seconds
*****
***** End of Xyce(TM) Simulation
*****

Timing summary of 1 processor
                 Stats                   Count       CPU Time              Wall Time
---------------------------------------- ----- --------------------- ---------------------
Xyce                                         1    10:13.736 (100.0%)    10:17.204 (100.0%)
  Analysis                                   1    10:12.206 (99.75%)    10:15.598 (99.74%)
    Step                                     1    10:12.206 (99.75%)    10:15.598 (99.74%)
      AC                                    12    10:12.181 (99.75%)    10:15.572 (99.74%)
        DC Nonlinear Solve                  12     9:58.488 (97.52%)    10:01.802 (97.50%)
          Residual                       39879     8:35.208 (83.95%)     8:37.869 (83.91%)
          Jacobian                       38971       35.914 ( 5.85%)       36.274 ( 5.88%)
          Linear Solve                   38971       22.079 ( 3.60%)       22.255 ( 3.61%)
        AC Linear Solve                    732        1.716 ( 0.28%)        1.717 ( 0.28%)
          Linear Solve                     732        1.710 ( 0.28%)        1.714 ( 0.28%)
  Netlist Import                             1        1.372 ( 0.22%)        1.419 ( 0.23%)
    Parse Context                            1        0.017 (<0.01%)        0.019 (<0.01%)
    Distribute Devices                       1        1.330 ( 0.22%)        1.370 ( 0.22%)
    Verify Devices                           1        0.000 (<0.01%)        0.000 (<0.01%)
    Instantiate                              1        0.024 (<0.01%)        0.029 (<0.01%)
  Late Initialization                        1        0.157 ( 0.03%)        0.183 ( 0.03%)
    Global Indices                           1        0.007 (<0.01%)        0.007 (<0.01%)
  Setup Matrix Structure                     1        0.009 (<0.01%)        0.013 (<0.01%)

